<?xml version="1.0" encoding="UTF-8"?>

<!-- generated on 05/28/15 23:54:44 by SUMO duarouter Version 0.21.0
<?xml version="1.0" encoding="UTF-8"?>

<configuration xmlns:xsi="http://www.w3.org/2001/XMLSchema-instance" xsi:noNamespaceSchemaLocation="http://sumo-sim.org/xsd/duarouterConfiguration.xsd">

    <input>
        <net-file value="highway.net.xml"/>
        <trip-files value="trips.trips.xml"/>
    </input>

    <output>
        <output-file value="highway.rou.xml"/>
    </output>

    <processing>
        <ignore-errors value="true"/>
    </processing>

    <time>
        <begin value="0"/>
        <end value="20.0"/>
    </time>

    <report>
        <no-step-log value="true"/>
    </report>

</configuration>
-->

<routes xmlns:xsi="http://www.w3.org/2001/XMLSchema-instance" xsi:noNamespaceSchemaLocation="http://sumo-sim.org/xsd/routes_file.xsd">
   <vType id="vtype0" accel="0.8" decel="4.5" sigma="0.5" length="3" maxSpeed="15"/>
	<route id="route1" edges="-118086031 -116935020 116935021#1 55320844#2 55320844#3 116935022#2"/>
	<flow id="0" type="vtype0" route="route1" color="1,0,1"  begin="0"  period="6.67"  number="50" />
</routes>