<?xml version="1.0" encoding="UTF-8"?>

<!-- generated on Fri Jul 17 20:50:25 2015 by SUMO polyconvert Version 0.19.0
<?xml version="1.0" encoding="UTF-8"?>

<configuration xmlns:xsi="http://www.w3.org/2001/XMLSchema-instance" xsi:noNamespaceSchemaLocation="http://sumo-sim.org/xsd/polyconvertConfiguration.xsd">

    <input>
        <net-file value="highway.net.xml"/>
        <osm-files value="highway.osm"/>
        <type-file value="typemap.xml"/>
    </input>

    <output>
        <output-file value="highway.poly.xml"/>
    </output>

</configuration>
-->

<shapes>
    <poly id="116935025" type="landuse" color="194,194,130" fill="1" layer="-4.00" shape="8960.76,3344.85 8999.24,3383.44 9321.39,3054.74 9320.59,3041.35 9244.50,2959.14 9229.39,2963.28 9244.39,2996.79 9214.95,3028.49 8969.31,3287.99 8986.82,3325.69 8960.76,3344.85"/>
    <poly id="116935030" type="forest" color="140,196,107" fill="1" layer="-11.00" shape="6120.96,3553.35 6136.74,3526.20 6186.09,3491.81 6367.35,3444.70 6469.30,3418.20 6475.57,3429.72 6441.86,3498.66 6511.93,3572.02 6621.67,3713.43 6603.84,3719.66 6320.03,3598.76 6224.63,3601.69 6162.79,3596.32 6132.44,3573.25 6120.96,3553.35"/>
    <poly id="116935031" type="forest" color="140,196,107" fill="1" layer="-11.00" shape="6234.11,4558.99 6251.89,4577.85 6248.66,4612.35 6397.26,4715.14 6426.69,4679.66 6451.85,4675.53 6470.78,4648.39 6454.14,4586.68 6509.91,4494.81 6367.66,4366.92 6361.45,4374.02 6346.64,4390.92 6359.09,4444.28 6328.62,4477.66 6237.30,4541.23 6234.11,4558.99"/>
    <poly id="116935035" type="residential" color="235,235,227" fill="1" layer="-11.00" shape="7335.70,4493.87 7265.52,4438.56 7274.28,4429.31 7401.19,4295.34 7427.97,4320.48 7430.95,4323.28 7448.63,4280.25 7458.69,4281.80 7484.43,4286.83 7469.76,4342.10 7506.84,4351.45 7482.64,4413.06 7459.69,4456.27 7398.67,4571.16 7393.33,4567.22 7316.69,4527.68 7335.70,4493.87"/>
    <poly id="116935044" type="landuse" color="194,194,130" fill="1" layer="-4.00" shape="3486.16,4396.55 3593.31,4511.54 3677.98,4600.72 3712.48,4635.28 3750.77,4611.57 3825.69,4564.13 3859.53,4550.92 3885.56,4564.80 3912.12,4598.02 3936.48,4611.89 3946.46,4611.91 3984.78,4570.50 4029.21,4530.77 4070.28,4499.32 4097.50,4471.72 4106.98,4438.01 4078.79,4394.27 4039.56,4319.00 4004.77,4244.83 3949.57,4111.46 3935.28,4040.65 3917.58,4019.04 3894.27,4031.72 3703.87,4164.12 3620.59,4231.44 3511.70,4366.74 3486.16,4396.55"/>
    <poly id="116935048" type="residential" color="235,235,227" fill="1" layer="-11.00" shape="7177.36,4901.37 7233.87,4822.21 7217.58,4815.75 7342.53,4626.36 7284.73,4582.74 7272.33,4599.85 7240.49,4572.15 7254.73,4546.93 7228.16,4525.88 7166.21,4580.11 7141.34,4568.06 7102.16,4614.22 7084.60,4597.47 7054.03,4635.08 7068.17,4646.25 7032.44,4685.99 7010.59,4667.95 6937.81,4766.26 6944.50,4770.96 6989.36,4802.46 6973.99,4820.23 6962.78,4841.61 6955.35,4861.82 6947.57,4858.87 6909.72,4844.56 6880.41,4895.87 6820.53,4983.94 6845.39,5000.27 6814.40,5035.73 6807.55,5028.87 6802.14,5035.64 6773.10,5072.03 6791.75,5087.29 6795.20,5090.11 6786.75,5100.29 6812.47,5125.21 6837.84,5104.72 6815.63,5072.96 6905.44,4997.51 6969.76,5048.52 7020.16,4971.99 6975.84,4938.38 7028.31,4894.30 7077.81,4846.38 7177.36,4901.37"/>
    <poly id="116935051" type="landuse" color="194,194,130" fill="1" layer="-4.00" shape="3713.58,4643.57 3623.97,4573.75 3484.80,4419.56 3472.83,4410.91 3456.18,4417.52 3416.22,4450.08 3402.90,4453.93 3333.12,4525.13 3271.30,4580.24 3188.82,4678.48 3120.21,4768.26 3066.47,4870.80 3038.37,4918.53 3018.84,4935.48 2981.93,4937.91 2933.33,4940.66 2836.77,4978.72 2707.22,5023.47 2519.32,5082.37 2402.86,5120.91 2698.26,5513.35 2795.62,5636.23 2870.82,5745.80 2918.45,5770.76 3263.52,5898.46 3295.10,5906.81 3330.58,5903.00 3371.66,5862.16 3336.82,5811.79 3404.51,5766.56 3428.85,5797.01 3517.70,5693.23 3548.81,5650.16 3584.33,5590.75 3610.71,5558.31 3630.85,5531.39 3647.55,5488.58 3660.76,5461.65 3687.84,5428.53 3712.81,5410.60 3753.70,5401.68 3851.48,5354.17 3902.78,5334.21 3906.27,5319.71 3880.69,5287.87 3811.17,5215.50 3784.11,5158.51 3781.36,5144.13 3813.55,5122.62 3840.99,5099.39 3844.16,5094.11 3867.16,5071.96 3889.56,5045.10 3908.05,4995.38 3692.99,4687.22 3691.36,4668.97 3713.58,4643.57"/>
    <poly id="116935052" type="landuse" color="194,194,130" fill="1" layer="-4.00" shape="7509.19,4474.10 7600.36,4497.34 7567.77,4654.63 7852.92,4689.51 7974.30,4699.87 8002.48,4696.59 8043.39,4701.38 8148.04,4697.64 8231.67,4624.66 8343.00,4531.82 8422.58,4467.65 8326.46,4452.41 8336.45,4385.94 8344.45,4349.24 8368.71,4326.17 8401.48,4298.65 8481.32,4231.96 8494.80,4208.15 8455.02,4192.36 8463.56,4132.80 8479.36,4104.61 8531.75,4111.02 8539.18,4078.63 8567.63,4021.19 8903.55,3713.61 8888.54,3680.94 8907.12,3635.82 9052.59,3496.52 9076.14,3474.01 9006.74,3401.04 8999.24,3383.44 8960.76,3344.85 8894.70,3276.90 8837.06,3193.92 8802.77,3160.37 8924.67,3055.28 8937.32,3032.74 8848.80,2890.27 8839.65,2863.47 8870.74,2843.47 8941.42,2763.34 8869.67,2685.67 8428.45,3073.29 7752.14,3688.31 7756.96,3695.28 7781.08,3703.91 7800.77,3772.49 7722.94,3773.90 7702.02,3766.88 7603.23,3995.77 7560.67,4061.50 7495.94,4191.42 7458.69,4281.80 7484.43,4286.83 7469.76,4342.10 7506.84,4351.45 7482.64,4413.06 7459.69,4456.27 7509.19,4474.10"/>
    <poly id="116935053" type="landuse" color="194,194,130" fill="1" layer="-4.00" shape="1620.80,6379.09 1625.33,6315.43 1639.28,6315.16 1646.47,6268.98 1723.65,6267.90 1724.32,6212.83 1665.85,6205.64 1662.59,6198.23 1661.74,6170.40 1595.24,6174.75 1594.96,6161.73 1612.65,6030.50 1629.19,5869.89 1631.11,5813.63 1618.59,5744.02 1518.44,5125.71 1500.79,5002.05 1478.01,4821.35 1471.06,4740.27 1483.33,4730.28 1546.45,4700.01 1728.45,4605.83 1798.65,4569.28 1841.73,4547.12 1883.32,4532.36 1906.70,4534.25 1928.96,4543.91 2203.11,4906.37 2455.72,5254.35 2441.97,5263.21 2447.52,5280.62 2447.50,5294.32 2446.74,5304.68 2456.00,5310.61 2478.30,5288.44 2494.99,5296.23 2720.16,5601.60 2720.15,5610.85 2680.03,5641.14 2714.09,5692.27 2738.62,5669.73 2759.78,5659.77 2830.89,5748.71 2795.64,5747.18 2668.00,5736.99 2633.12,5739.90 2635.33,5751.75 2624.53,5778.38 2610.38,5805.75 2565.92,5899.16 2532.07,5956.86 2516.04,6003.46 2504.44,6064.89 2505.87,6105.23 2516.17,6170.76 2514.97,6221.84 2488.99,6231.05 2426.25,6249.84 2289.26,6303.67 2126.29,6368.21 2038.32,6392.51 1922.17,6403.09 1753.72,6410.62 1737.76,6409.87 1664.33,6383.87 1630.58,6379.75 1620.80,6379.09"/>
    <poly id="116935054" type="landuse" color="194,194,130" fill="1" layer="-4.00" shape="6325.50,5360.80 6698.50,5200.86 6716.63,5184.28 6739.09,5139.04 6791.75,5087.29 6773.10,5072.03 6802.14,5035.64 6715.37,4964.88 6742.78,4928.14 6820.53,4983.94 6880.41,4895.87 6909.72,4844.56 6947.57,4858.87 6958.71,4830.62 6942.77,4816.08 6516.73,4488.35 6509.91,4494.81 6454.14,4586.68 6470.78,4648.39 6451.85,4675.53 6426.69,4679.66 6397.26,4715.14 6248.66,4612.35 6251.89,4577.85 6234.11,4558.99 6237.30,4541.23 6328.62,4477.66 6359.09,4444.28 6346.64,4390.92 6361.45,4374.02 6367.66,4366.92 6009.87,4061.50 5999.25,4052.98 5959.41,4095.72 5940.24,4101.69 5883.56,4056.98 5836.60,4115.27 5822.68,4146.11 5799.30,4231.65 5774.30,4308.13 5782.18,4352.83 5825.45,4442.73 5976.16,4683.26 6046.68,4612.15 6032.97,4591.33 6052.08,4572.34 6065.38,4577.24 6113.17,4625.12 6108.71,4636.16 6005.57,4732.67 6053.92,4813.93 6068.11,4815.29 6091.65,4801.18 6147.77,4841.54 6149.76,4878.86 6167.67,4930.04 6198.74,4953.93 6200.92,4969.40 6189.79,4990.18 6157.42,4990.54 6146.71,5018.82 6165.73,5040.54 6161.73,5044.96 6118.65,5075.82 6115.06,5093.51 6218.58,5202.99 6309.62,5338.11 6325.50,5360.80"/>
    <poly id="116935055" type="landuse" color="194,194,130" fill="1" layer="-4.00" shape="7445.22,4272.71 7476.76,4183.99 7507.69,4122.12 7543.20,4054.27 7560.05,4016.19 7564.83,3992.66 7525.17,3904.46 7245.56,3402.97 7182.39,3277.26 7155.98,3286.25 7137.55,3296.07 7113.99,3264.76 7119.86,3243.27 7138.41,3207.77 7131.19,3174.76 6594.59,3292.30 6597.52,3312.47 6511.59,3335.70 6496.79,3351.73 6487.98,3389.86 6598.08,3363.34 6603.41,3377.40 6642.24,3414.30 6656.92,3449.81 6663.56,3477.78 6672.91,3495.35 6701.13,3524.61 6702.89,3538.40 6683.83,3563.09 6709.58,3598.50 6746.39,3636.06 6732.93,3655.44 6714.78,3668.11 6687.99,3647.30 6624.49,3594.79 6530.70,3486.99 6475.57,3429.72 6441.86,3498.66 6511.93,3572.02 6621.67,3713.43 6603.84,3719.66 6320.03,3598.76 6224.63,3601.69 6162.79,3596.32 6132.44,3573.25 6120.96,3553.35 6117.98,3530.23 5931.69,3426.75 5914.88,3444.79 5894.77,3440.73 5850.60,3415.49 5739.84,3430.82 5782.68,3458.56 6021.22,3602.96 6108.96,3666.06 6173.19,3748.52 6164.43,3765.23 6130.05,3839.43 6130.67,3858.17 6103.13,3876.18 6073.96,3914.86 5992.79,4022.49 6043.02,4057.39 6493.69,4445.02 6846.08,4722.58 6930.23,4789.25 6944.50,4770.96 6937.81,4766.26 7010.59,4667.95 7032.44,4685.99 7068.17,4646.25 7054.03,4635.08 7084.60,4597.47 7102.16,4614.22 7141.34,4568.06 7068.62,4504.91 7211.12,4377.46 7274.28,4429.31 7401.19,4295.34 7427.97,4320.48 7444.12,4277.01 7445.22,4272.71"/>
    <poly id="118086035" type="landuse" color="194,194,130" fill="1" layer="-4.00" shape="6617.97,1990.20 6219.73,1939.26 5915.49,1898.18 5912.88,1916.56 6057.53,2271.66 6068.82,2279.95 6425.91,2314.27 6440.88,2307.46 6579.00,2136.92 6599.14,2101.94 6610.03,2066.19 6623.27,2010.02 6617.97,1990.20"/>
    <poly id="118086041" type="landuse" color="194,194,130" fill="1" layer="-4.00" shape="6656.92,3449.81 6663.56,3477.78 6672.91,3495.35 6701.13,3524.61 6702.89,3538.40 6683.83,3563.09 6709.58,3598.50 6746.39,3636.06 6732.93,3655.44 6725.62,3645.51 6665.52,3574.21 6600.02,3542.79 6592.82,3529.79 6621.76,3525.04 6664.15,3542.94 6681.50,3542.98 6693.58,3532.91 6672.41,3511.70 6654.14,3492.42 6656.11,3476.07 6656.92,3449.81"/>
    <poly id="118086076" type="forest" color="140,196,107" fill="1" layer="-11.00" shape="6530.70,3486.99 6549.07,3475.82 6618.09,3446.65 6614.74,3436.54 6605.60,3426.90 6617.68,3413.95 6642.24,3414.30 6656.92,3449.81 6656.11,3476.07 6654.14,3492.42 6672.41,3511.70 6693.58,3532.91 6681.50,3542.98 6664.15,3542.94 6621.76,3525.04 6592.82,3529.79 6600.02,3542.79 6665.52,3574.21 6725.62,3645.51 6732.93,3655.44 6714.78,3668.11 6687.99,3647.30 6624.49,3594.79 6530.70,3486.99"/>
    <poly id="118086103" type="landuse" color="194,194,130" fill="1" layer="-4.00" shape="1806.93,2413.97 1708.93,2400.57 1649.94,2400.89 1660.26,2433.10 1640.73,2439.44 1644.69,2460.11 1612.80,2468.02 1633.03,2534.83 1619.08,2537.19 1601.99,2499.81 1570.96,2463.60 1541.49,2447.65 1492.11,2417.78 1461.45,2392.29 1453.51,2376.39 1426.69,2281.34 1432.43,2279.13 1691.26,2323.35 1720.27,2325.93 1739.38,2335.18 1779.54,2339.05 1800.27,2338.76 1913.49,2359.44 1914.02,2420.32 1825.00,2410.27 1806.93,2413.97"/>
    <poly id="118086132" type="landuse" color="194,194,130" fill="1" layer="-4.00" shape="2174.99,2273.09 1938.29,2333.82 1923.15,2345.80 1721.04,2311.36 1415.56,2261.40 1361.26,2245.32 1343.99,2229.28 1335.72,2183.72 1325.59,2138.14 1328.38,2130.45 1439.85,2091.79 1399.88,1968.29 1401.74,1961.52 1511.98,1920.09 1545.18,2028.19 1641.51,2002.46 1631.37,1966.12 1643.11,1963.36 1640.34,1951.36 1666.28,1941.84 1653.38,1892.57 1654.01,1883.32 1843.94,1836.68 1853.07,1840.39 1868.38,1839.92 1910.13,1828.40 1913.11,1816.58 1916.32,1814.12 2180.39,1744.28 2243.63,1730.58 2336.01,1706.58 2349.54,1761.78 2347.06,1768.86 2326.38,1774.68 2093.52,1860.25 2084.90,1844.84 2075.06,1818.05 2064.29,1793.71 2054.41,1794.30 2020.76,1803.80 2023.51,1822.59 2033.02,1861.09 2033.00,1878.94 2024.96,1885.40 2033.24,1921.74 2019.05,1925.73 1993.66,1979.26 1988.01,2046.07 1989.52,2069.77 1968.84,2074.67 1969.13,2084.83 1958.02,2086.97 1973.70,2127.32 2091.65,2091.77 2174.99,2273.09"/>
    <poly id="118086138" type="landuse" color="194,194,130" fill="1" layer="-4.00" shape="5610.87,3333.31 5786.85,3286.52 5884.57,3249.45 5976.21,3235.83 6095.85,3204.58 6157.70,3194.62 6293.12,3172.79 6390.28,3157.93 6485.09,3143.42 7056.54,3027.85 6878.64,2642.60 6862.39,2632.34 6847.39,2604.04 6840.29,2545.11 6824.68,2518.01 6821.61,2544.46 6823.72,2670.13 6825.09,2704.29 6808.20,2708.10 6732.49,2709.84 6717.07,2706.91 6718.53,2699.22 6777.36,2697.92 6796.66,2696.04 6805.87,2675.38 6810.63,2495.50 6808.76,2472.88 6756.00,2348.18 6726.82,2247.09 6702.73,2237.89 6695.04,2227.30 6701.85,2205.66 6645.37,2021.78 6636.19,2026.56 6623.97,2098.21 6616.20,2120.32 6422.29,2350.29 6422.12,2366.97 6432.37,2368.80 6421.46,2392.82 6417.19,2416.86 6423.68,2477.01 6439.31,2495.08 6485.06,2521.64 6504.26,2558.97 6486.67,2606.42 6454.19,2629.55 6415.57,2650.15 6402.57,2637.13 6409.13,2512.09 6408.77,2457.73 6407.51,2375.47 6399.80,2372.57 6141.10,2689.93 5946.73,2931.93 5698.79,3204.09 5652.38,3264.59 5610.87,3333.31"/>
    <poly id="118250863" type="landuse" color="194,194,130" fill="1" layer="-4.00" shape="1472.32,4716.66 1693.24,4612.63 1905.93,4510.28 1441.00,3879.41 1165.22,3512.13 1155.73,3524.73 1197.27,3747.30 1211.64,3797.74 1420.79,4383.71 1435.15,4444.95 1468.21,4710.58 1472.32,4716.66"/>
    <poly id="118250864" type="landuse" color="194,194,130" fill="1" layer="-4.00" shape="3087.09,4341.71 3041.72,4285.79 3019.57,4270.82 2983.06,4217.68 2950.41,4177.80 2958.75,4166.20 3017.57,4128.69 3070.29,4098.91 3105.27,4066.34 3119.71,4050.88 3153.47,4087.43 3266.96,4201.51 3087.09,4341.71"/>
    <poly id="118250867" type="landuse" color="194,194,130" fill="1" layer="-4.00" shape="1609.93,4065.19 1415.69,3799.75 1413.55,3787.95 1514.02,3696.82 1679.40,3583.11 1800.94,3497.54 1822.58,3491.49 1848.58,3530.23 1892.85,3596.12 1920.54,3623.25 2038.20,3536.57 2057.07,3521.12 2079.76,3555.44 2096.93,3569.29 2136.90,3646.14 2031.99,3722.48 1878.09,3841.42 1780.49,3922.77 1758.18,3898.91 1739.67,3905.81 1672.93,3969.51 1675.61,3983.74 1682.91,3999.12 1619.26,4056.69 1609.93,4065.19"/>
    <poly id="118250869" type="landuse" color="194,194,130" fill="1" layer="-4.00" shape="2390.27,5112.03 2276.70,4963.84 2331.08,4922.44 2461.95,4888.91 2517.42,4860.79 2562.36,4837.08 2555.75,4808.31 2569.08,4792.85 2575.74,4787.33 2561.98,4722.07 2611.53,4720.18 2745.95,4677.64 2941.59,4591.49 2975.75,4610.75 3017.62,4631.47 3025.79,4638.21 3109.40,4749.30 3106.01,4764.19 3057.22,4859.70 3042.27,4875.52 2930.00,4920.97 2766.19,4983.16 2749.34,4980.26 2740.68,4977.84 2695.86,4994.10 2689.10,5009.94 2671.75,5018.08 2402.93,5108.45 2390.27,5112.03"/>
    <poly id="118250875" type="landuse" color="194,194,130" fill="1" layer="-4.00" shape="1933.58,4502.66 2108.95,4454.47 2164.05,4441.10 2179.11,4422.29 2180.56,4417.21 2192.79,4398.97 2232.18,4379.12 2246.65,4338.22 2273.90,4276.88 2308.86,4255.36 2445.28,4227.36 2464.69,4225.17 2475.43,4205.83 2457.55,4177.61 2413.31,4100.12 2430.52,4080.79 2464.94,4057.06 2434.51,4013.32 2460.06,3983.50 2467.28,3971.89 2435.20,3917.10 2406.44,3869.50 2410.94,3823.60 2417.63,3801.48 2586.39,3659.59 2582.54,3643.00 2547.66,3608.66 2544.94,3571.05 2533.32,3557.20 2440.92,3426.53 2423.73,3421.53 2374.87,3465.15 2382.61,3481.76 2383.70,3497.25 2369.29,3495.01 2355.43,3490.02 2325.44,3519.28 2308.77,3545.81 2276.06,3547.42 2141.09,3652.50 1969.39,3803.99 1709.03,4010.69 1635.27,4062.96 1622.72,4083.12 1933.58,4502.66"/>
    <poly id="118250876" type="landuse" color="194,194,130" fill="1" layer="-4.00" shape="3399.59,4446.74 3264.10,4557.35 3141.54,4707.99 3130.91,4728.14 3117.92,4724.76 2980.44,4569.39 2964.06,4570.81 2916.36,4589.94 2728.42,4671.80 2603.65,4708.59 2554.52,4713.32 2476.64,4702.03 2369.60,4735.05 2381.21,4759.95 2402.77,4800.90 2411.08,4802.02 2403.85,4817.49 2373.24,4822.43 2331.97,4847.58 2238.35,4882.39 2227.18,4898.93 2134.05,4767.47 1941.79,4507.34 2103.18,4461.45 2183.15,4444.26 2196.74,4439.37 2441.73,4379.98 2554.86,4354.15 2614.23,4319.96 2665.32,4269.16 2715.86,4210.06 2740.26,4204.57 2757.41,4223.41 2789.54,4240.60 2820.02,4250.60 2919.62,4371.86 2954.49,4408.41 2970.74,4425.90 2999.62,4428.95 3067.10,4363.24 3087.09,4341.71 3266.96,4201.51 3278.56,4213.17 3447.41,4381.98 3459.55,4394.85 3429.02,4418.58 3399.59,4446.74"/>
    <poly id="222024350" type="forest" color="140,196,107" fill="1" layer="-11.00" shape="4833.51,3505.71 4955.06,3527.82 4996.55,3534.94 5017.26,3458.94 4916.90,3459.63 4836.89,3456.20 4803.85,3454.81 4646.65,3446.06 4722.10,3485.45 4801.08,3499.81 4833.51,3505.71"/>
    <poly id="222024377" type="forest" color="140,196,107" fill="1" layer="-11.00" shape="5768.78,3793.72 5706.06,3873.99 5703.31,3877.51 5747.57,3890.93 5937.94,4007.09 5995.60,3959.51 6106.37,3868.09 6165.03,3759.47 6096.69,3664.98 6009.47,3610.55 5943.44,3570.22 5768.78,3793.72"/>
    <poly id="222024516" type="forest" color="140,196,107" fill="1" layer="-11.00" shape="2255.57,2267.79 2175.13,2276.62 2010.19,2321.80 2006.83,2322.72 1927.54,2342.99 1919.12,2345.15 2201.56,2387.67 2602.79,2452.28 2643.00,2459.04 2631.64,2414.43 2631.95,2384.77 2637.52,2371.93 2675.48,2284.41 2676.50,2273.65 2664.57,2222.90 2533.21,2237.32 2465.80,2244.71 2255.57,2267.79"/>
    <poly id="222024523" type="forest" color="140,196,107" fill="1" layer="-11.00" shape="5144.50,3563.89 5292.97,3647.89 5329.24,3680.35 5334.39,3687.77 5359.85,3657.00 5462.34,3548.48 5512.83,3494.98 5543.30,3447.63 5406.41,3454.11 5394.71,3504.86 5384.76,3548.00 5206.72,3552.29 5197.11,3520.00 5178.42,3457.17 5017.26,3458.94 4996.55,3534.94 5135.45,3558.76 5144.50,3563.89"/>
    <poly id="222024558" type="forest" color="140,196,107" fill="1" layer="-11.00" shape="2671.28,2517.45 2712.47,2597.01 2720.05,2611.63 2833.09,2829.94 2839.46,2826.53 2831.16,2811.90 2894.29,2781.98 2943.18,2759.86 2957.59,2753.34 2992.18,2814.12 3009.75,2844.98 3104.72,2795.58 3010.51,2587.78 3006.16,2585.51 2828.44,2499.91 2788.27,2493.24 2771.24,2490.41 2647.27,2469.81 2671.28,2517.45"/>
    <poly id="222024657" type="forest" color="140,196,107" fill="1" layer="-11.00" shape="5349.91,3680.16 5339.70,3695.50 5387.99,3765.36 5460.01,3805.72 5522.01,3812.69 5579.79,3830.60 5633.39,3845.43 5687.63,3872.75 5703.31,3877.51 5706.06,3873.99 5768.78,3793.72 5943.44,3570.22 5900.65,3544.13 5889.55,3537.36 5719.73,3431.79 5711.06,3426.40 5567.58,3437.80 5520.24,3496.40 5515.86,3501.04 5379.94,3644.80 5358.01,3667.99 5349.91,3680.16"/>
    <poly id="222024688" type="forest" color="140,196,107" fill="1" layer="-11.00" shape="3016.29,3061.15 3072.80,3128.13 3158.81,3230.07 3161.52,3228.50 3136.12,3092.40 3164.09,3017.16 3403.03,2949.66 3468.84,2996.45 3634.28,2875.15 3632.12,2872.31 3617.45,2865.92 3529.58,2827.67 3379.07,2870.53 3230.76,2912.76 3151.39,2929.99 3030.22,2956.29 3024.75,2941.99 2985.52,2962.36 2975.77,2976.86 2980.68,2997.39 3011.95,3053.64 3015.83,3060.62 3016.29,3061.15"/>
    <poly id="222024716" type="forest" color="140,196,107" fill="1" layer="-11.00" shape="5313.40,4503.63 5315.71,4506.49 5346.58,4566.19 5378.34,4571.55 5418.05,4562.26 5490.76,4529.13 5502.50,4523.79 5508.14,4521.22 5526.58,4519.84 5608.27,4491.91 5671.30,4423.28 5759.74,4333.08 5757.13,4328.72 5841.62,4084.24 5863.19,4065.89 5925.45,4012.91 5877.96,3983.40 5825.01,3950.48 5742.23,3899.04 5696.65,3886.38 5476.76,4183.97 5340.65,4368.17 5275.37,4456.52 5313.40,4503.63"/>
    <poly id="222024760" type="forest" color="140,196,107" fill="1" layer="-11.00" shape="4821.00,3928.81 4791.63,3989.90 4846.43,4037.75 4895.81,4080.85 4922.36,4096.26 4948.13,4122.71 4968.11,4143.22 5057.15,4223.11 5113.88,4257.96 5122.48,4200.94 5120.63,4162.72 5125.99,4099.83 5126.31,4095.87 5147.93,4028.26 5176.89,3978.24 5210.70,3932.79 5285.07,3802.75 5328.75,3696.06 5323.57,3688.45 5288.01,3654.36 5225.36,3619.46 5132.59,3567.80 5042.33,3553.39 5004.51,3547.35 4945.77,3669.47 4879.59,3807.04 4821.00,3928.81"/>
    <poly id="222024761" type="forest" color="140,196,107" fill="1" layer="-11.00" shape="3387.02,2160.12 3408.11,2309.83 3410.98,2330.13 3413.86,2350.57 3415.03,2358.81 3435.97,2357.40 3436.42,2365.10 3610.28,2374.42 3661.11,2377.15 3662.03,2383.17 3793.38,2244.71 3848.15,2186.98 3911.47,2120.25 3943.18,2086.82 3779.01,1979.99 3751.95,1987.75 3743.77,1971.52 3710.77,1906.12 3699.85,1830.50 3533.04,1847.11 3554.32,1906.44 3543.52,1908.12 3457.62,1921.42 3403.16,1929.45 3355.52,1936.47 3384.39,2141.38 3387.02,2160.12"/>
    <poly id="222024775" type="forest" color="140,196,107" fill="1" layer="-11.00" shape="5130.42,4105.33 5125.56,4163.64 5127.93,4202.45 5118.88,4259.83 5145.43,4295.40 5178.61,4339.85 5275.37,4456.52 5340.65,4368.17 5476.76,4183.97 5696.65,3886.38 5684.31,3882.95 5629.41,3854.61 5605.25,3847.23 5578.33,3839.03 5520.09,3821.22 5510.57,3820.31 5464.08,3815.85 5458.85,3815.35 5380.91,3772.69 5332.57,3701.67 5289.25,3805.07 5214.96,3935.40 5213.56,3937.30 5181.13,3980.89 5152.70,4029.71 5131.09,4097.31 5130.42,4105.33"/>
    <poly id="222024830" type="forest" color="140,196,107" fill="1" layer="-11.00" shape="4347.51,4349.89 4459.80,4455.91 4532.06,4524.11 4561.73,4463.06 4601.57,4381.06 4700.85,4176.73 4791.63,3989.90 4821.00,3928.81 4879.59,3807.04 4945.77,3669.47 5004.51,3547.35 4954.24,3539.33 4829.30,3515.69 4718.81,3494.78 4667.77,3483.35 4643.76,3474.84 4576.98,3451.21 4565.25,3465.36 4526.21,3519.70 4501.05,3576.31 4504.26,3700.66 4504.37,3704.94 4502.49,3709.57 4482.11,3770.56 4464.92,3816.72 4445.02,3841.35 4429.58,3916.70 4388.87,4115.38 4320.95,4324.83 4347.51,4349.89"/>
    <poly id="222024834" type="forest" color="140,196,107" fill="1" layer="-11.00" shape="2514.11,3360.05 2489.51,3375.44 2527.50,3380.32 2514.11,3360.05"/>
    <poly id="222024859" type="forest" color="140,196,107" fill="1" layer="-11.00" shape="1810.41,2448.11 1817.11,2476.32 1840.63,2470.92 1842.72,2476.54 1856.40,2513.35 1863.43,2532.26 1880.27,2577.63 1952.63,2612.65 1993.34,2657.41 1910.35,2684.29 1951.73,2708.39 2042.12,2650.12 2085.35,2661.20 2140.50,2591.17 2153.16,2594.17 2268.30,2580.97 2397.21,2566.22 2449.17,2560.28 2493.96,2555.15 2551.11,2548.60 2586.32,2539.47 2671.28,2517.45 2647.27,2469.81 2601.37,2462.18 2419.12,2432.83 2233.12,2402.87 2200.15,2397.56 2042.56,2374.08 1911.80,2354.59 1916.65,2403.43 1900.73,2410.12 1887.97,2415.49 1810.41,2448.11"/>
    <poly id="222024877" type="forest" color="140,196,107" fill="1" layer="-11.00" shape="2175.61,3678.44 2197.36,3708.71 2202.93,3716.47 2229.10,3752.92 2308.13,3862.97 2318.96,3878.03 2375.43,3956.67 2416.23,4013.46 2414.83,4022.88 2403.53,4098.19 2479.63,4212.84 2500.13,4182.04 2514.13,4161.00 2629.29,3987.97 2660.13,3941.64 2797.43,3735.35 2771.13,3707.88 2764.77,3699.57 2709.96,3628.07 2676.71,3583.71 2528.89,3386.56 2484.97,3383.68 2455.09,3401.28 2428.66,3424.89 2395.28,3452.73 2366.96,3476.34 2320.56,3515.04 2317.01,3517.99 2296.75,3533.37 2289.47,3538.89 2280.05,3546.05 2150.93,3644.06 2164.07,3662.37 2175.61,3678.44"/>
    <poly id="222024934" type="forest" color="140,196,107" fill="1" layer="-11.00" shape="2233.09,4428.97 2389.48,4392.14 2542.88,4355.67 2555.54,4367.00 2569.55,4354.91 2651.04,4284.51 2684.18,4255.88 2693.78,4244.32 2729.46,4201.35 2766.49,4239.65 2805.98,4245.16 2859.07,4304.30 2895.50,4344.87 2977.83,4441.56 3085.95,4348.98 3262.34,4204.68 3115.40,4053.39 3111.20,4049.19 3074.41,4012.47 3060.54,3998.69 3033.26,3971.62 2981.07,3919.78 2962.02,3900.86 2931.75,3870.47 2802.20,3740.32 2797.43,3735.35 2660.13,3941.64 2629.29,3987.97 2514.13,4161.00 2500.13,4182.04 2479.63,4212.84 2444.94,4230.09 2405.94,4238.11 2319.86,4255.84 2264.48,4280.24 2230.10,4373.30 2175.42,4409.73 2192.00,4438.65 2233.09,4428.97"/>
    <poly id="222024992" type="forest" color="140,196,107" fill="1" layer="-11.00" shape="4364.56,3275.78 4406.97,3301.07 4510.87,3348.46 4534.92,3350.63 4559.77,3349.56 4561.69,3349.53 4585.02,3349.18 4610.76,3349.54 4635.99,3354.09 4658.89,3357.74 4666.13,3353.32 4669.11,3356.74 4682.79,3346.51 4732.55,3277.48 4802.55,3192.66 4824.17,3162.29 4831.31,3152.25 4864.77,3087.66 4868.80,3079.89 4926.22,2969.07 4926.54,2968.50 4997.33,2839.12 4989.93,2833.66 4850.67,2730.92 4848.92,2729.62 4773.74,2674.15 4772.27,2673.08 4744.49,2652.58 4708.69,2626.16 4667.74,2673.03 4663.70,2677.66 4608.46,2740.87 4582.74,2770.31 4550.72,2806.96 4537.28,2822.34 4517.59,2844.89 4514.16,2848.80 4439.72,2934.00 4430.77,2944.24 4327.29,3062.67 4298.15,3096.02 4238.67,3164.10 4260.18,3184.23 4339.91,3260.47 4364.03,3275.47 4364.56,3275.78"/>
    <poly id="222025041" type="forest" color="140,196,107" fill="1" layer="-11.00" shape="4363.58,3296.46 4333.28,3344.11 4330.21,3348.80 4458.50,3355.05 4394.35,3323.14 4363.58,3296.46"/>
    <poly id="222025064" type="forest" color="140,196,107" fill="1" layer="-11.00" shape="3856.64,4747.32 3862.19,4751.68 3931.12,4826.74 3975.30,4874.86 3991.52,4898.27 4008.45,4983.76 4013.50,4988.58 4024.56,4981.53 4113.80,4924.56 4159.33,4895.52 4152.20,4887.94 4134.22,4868.86 4122.68,4850.20 4121.32,4848.00 4117.14,4835.55 4118.21,4804.89 4117.25,4793.74 4126.06,4776.08 4139.45,4760.61 4170.33,4749.44 4179.24,4731.01 4175.64,4711.05 4174.95,4707.20 4168.44,4687.88 4172.50,4671.79 4173.89,4664.71 4187.57,4651.30 4211.14,4638.71 4236.33,4625.28 4248.66,4615.16 4258.15,4597.01 4276.55,4561.82 4292.75,4528.59 4300.53,4498.55 4301.06,4496.48 4300.93,4493.52 4296.94,4409.53 4320.95,4324.83 4223.35,4232.50 4015.24,4035.62 3956.47,3980.03 3916.77,4013.99 3965.33,4136.48 3996.68,4210.26 4021.82,4271.19 4045.22,4327.89 4052.08,4344.52 4090.81,4403.42 4110.93,4452.02 3949.19,4598.18 3932.65,4613.11 3859.77,4545.26 3711.31,4633.35 3834.20,4729.73 3856.64,4747.32"/>
    <poly id="222025165" type="forest" color="140,196,107" fill="1" layer="-11.00" shape="2535.07,3351.16 2506.72,3350.40 2514.11,3360.05 2527.50,3380.32 2537.01,3381.51 2562.60,3406.76 2705.20,3602.81 2718.82,3621.55 2779.08,3700.29 2783.64,3705.05 2810.35,3732.96 2920.83,3843.90 2970.08,3893.38 2974.14,3897.41 3128.96,3767.37 3221.17,3689.92 3259.79,3657.48 3420.25,3522.70 3453.72,3494.58 3450.51,3490.74 3432.05,3468.19 3403.48,3433.30 3364.55,3385.74 3355.40,3373.41 3007.50,3356.48 3001.23,3356.18 2918.82,3352.17 2730.64,3343.01 2703.21,3347.41 2613.44,3347.47 2588.11,3350.96 2562.15,3351.89 2535.07,3351.16"/>
    <poly id="222025167" type="forest" color="140,196,107" fill="1" layer="-11.00" shape="2375.01,3168.94 2379.16,3177.77 2382.90,3185.69 2382.69,3189.04 2380.40,3226.85 2384.61,3227.04 2388.13,3236.90 2422.35,3239.08 2422.95,3239.12 2438.59,3240.21 2463.38,3239.50 2488.67,3239.41 2513.69,3240.56 2538.26,3240.87 2549.19,3228.41 2576.93,3213.58 2594.32,3214.50 2625.23,3216.14 2625.68,3216.17 2625.38,3245.54 2664.46,3252.00 2713.93,3263.72 2812.38,3268.30 2870.41,3273.74 2973.06,3278.74 2982.35,3252.40 2987.01,3252.44 3003.72,3252.58 3006.85,3270.28 3105.95,3274.21 3153.16,3276.08 3158.83,3268.28 3168.79,3267.18 3161.52,3228.50 3158.81,3230.07 3072.80,3128.13 3016.29,3061.15 3015.83,3060.62 3011.95,3053.64 2980.68,2997.39 2975.77,2976.86 2985.52,2962.36 2973.55,2968.57 2960.46,2947.77 2792.00,3038.88 2682.87,3100.97 2668.95,3108.89 2566.81,2977.00 2535.19,2992.90 2500.55,3010.32 2415.74,3052.98 2345.08,3088.51 2349.80,3105.07 2355.95,3128.42 2375.01,3168.94"/>
    <poly id="222025168" type="forest" color="140,196,107" fill="1" layer="-11.00" shape="2153.16,2594.17 2140.50,2591.17 2085.35,2661.20 1969.82,2740.39 2035.07,2765.14 2105.80,2807.54 2191.14,2871.69 2292.06,2947.56 2312.76,2974.99 2345.08,3088.51 2415.74,3052.98 2500.55,3010.32 2535.19,2992.90 2566.81,2977.00 2564.16,2973.58 2646.28,2929.72 2698.67,2901.73 2833.09,2829.94 2720.05,2611.63 2712.47,2597.01 2671.28,2517.45 2586.32,2539.47 2551.11,2548.60 2493.96,2555.15 2449.17,2560.28 2397.21,2566.22 2268.30,2580.97 2153.16,2594.17"/>
    <poly id="222025171" type="forest" color="140,196,107" fill="1" layer="-11.00" shape="1959.82,2077.44 1941.00,2081.52 1960.04,2147.66 2098.61,2112.75 2175.13,2276.62 2255.57,2267.79 2465.80,2244.71 2533.21,2237.32 2664.57,2222.90 2644.16,2139.22 2620.77,2043.36 2606.84,1986.33 2605.52,1980.91 2583.68,1891.45 2552.45,1763.45 2545.71,1735.77 2538.12,1704.74 2369.47,1757.80 2353.60,1762.81 2345.02,1765.51 2271.50,1788.65 2083.45,1864.70 2012.01,1884.52 2020.97,1925.76 1992.97,2064.12 1991.67,2070.54 1959.82,2077.44"/>
    <poly id="222025175" type="forest" color="140,196,107" fill="1" layer="-11.00" shape="4719.52,5040.88 4699.05,5097.66 4700.10,5169.98 4717.14,5274.11 4886.06,5237.44 5578.77,5087.11 5570.75,5072.30 5565.77,5051.46 5563.91,5043.64 5560.22,5036.35 5555.14,5026.28 5549.85,5015.81 5533.48,4983.41 5524.53,4965.70 5524.15,4964.93 5505.07,4922.10 5503.49,4918.53 5459.60,4819.99 5402.80,4692.45 5346.58,4566.19 5315.71,4506.49 5313.40,4503.63 5275.37,4456.52 5178.61,4339.85 5145.43,4295.40 5118.88,4259.83 5109.65,4318.48 5083.03,4371.87 5035.61,4487.78 5016.37,4534.85 4981.35,4579.65 4953.31,4632.66 4952.49,4634.05 4945.63,4645.83 4906.73,4712.60 4875.81,4797.76 4868.71,4809.36 4812.24,4901.63 4808.98,4906.51 4719.52,5040.88"/>
    <poly id="222025179" type="forest" color="140,196,107" fill="1" layer="-11.00" shape="4561.73,4463.06 4532.06,4524.11 4575.37,4565.55 4649.76,4636.72 4720.20,4704.12 4608.64,4741.89 4588.28,4760.26 4521.61,4820.48 4546.86,4849.55 4549.35,4852.43 4549.70,4852.83 4630.85,4946.30 4665.55,4986.25 4708.60,5035.85 4794.80,4904.84 4800.49,4896.20 4859.49,4799.62 4864.21,4791.91 4894.78,4707.59 4939.54,4636.18 4948.39,4634.28 4967.28,4596.57 4976.93,4577.32 4985.41,4566.47 5000.24,4547.50 5011.95,4532.51 5031.14,4485.55 5067.00,4397.90 5078.45,4369.87 5100.35,4325.96 5103.85,4318.95 5105.03,4316.57 5113.88,4257.96 5057.15,4223.11 4968.11,4143.22 4948.13,4122.71 4922.36,4096.26 4895.81,4080.85 4846.43,4037.75 4791.63,3989.90 4700.85,4176.73 4601.57,4381.06 4561.73,4463.06"/>